@<TRIPOS>MOLECULE
RX8
   45    47     1     0     0
SMALL
bcc


@<TRIPOS>ATOM
      1 N           47.5090    13.1200    22.9780 nh       902 RX8      -0.941500
      2 C           48.5120    13.7780    23.7520 ca       902 RX8       0.732200
      3 O           51.7340    16.8220    19.8530 os       902 RX8      -0.421600
      4 C1          49.3600    14.4610    25.8840 ca       902 RX8       0.458600
      5 N1          48.4040    13.8250    25.0870 nb       902 RX8      -0.772000
      6 O1          53.8560    14.3320    22.4060 oh       902 RX8      -0.606800
      7 C2          50.4530    15.0660    25.3220 ca       902 RX8      -0.158300
      8 N2          49.9700    14.5000    21.7330 nc       902 RX8      -0.550100
      9 C3          50.5930    15.0330    23.8400 ca       902 RX8      -0.022200
     10 N3          51.5320    15.5320    22.9150 na       902 RX8      -0.116300
     11 C4          49.6170    14.3900    23.0770 ca       902 RX8      -0.103900
     12 C5          51.1310    15.1930    21.6560 cd       902 RX8       0.353800
     13 C6          51.8500    15.5200    20.3620 c3       902 RX8       0.111100
     14 C7          51.0610    17.8120    20.5710 c3       902 RX8       0.121400
     15 C8          50.9450    19.1690    19.9320 c3       902 RX8      -0.097100
     16 C9          52.7640    16.2670    23.2440 c3       902 RX8       0.036300
     17 C10         54.0250    15.4010    23.2620 c3       902 RX8       0.133800
     18 C11         55.2120    16.2130    22.8280 c3       902 RX8      -0.128100
     19 C12         54.2830    14.8640    24.6470 c3       902 RX8      -0.128100
     20 C13         51.3920    15.7000    26.1800 ca       902 RX8      -0.108000
     21 C14         51.2180    15.7090    27.5700 ca       902 RX8      -0.152000
     22 C15         50.1050    15.0850    28.1310 ca       902 RX8      -0.115000
     23 C16         49.1750    14.4660    27.3020 ca       902 RX8      -0.183300
     24 H1          54.6590    13.8060    22.4360 ho       902 RX8       0.406000
     25 H3          46.7180    12.6900    23.4370 hn       902 RX8       0.427300
     26 H2          47.5900    13.0840    21.9720 hn       902 RX8       0.427300
     27 H13         52.2570    16.1850    25.7520 ha       902 RX8       0.123000
     28 H14         51.9430    16.1970    28.2040 ha       902 RX8       0.131000
     29 H15         49.9660    15.0820    29.2020 ha       902 RX8       0.133000
     30 H16         48.3080    13.9860    27.7320 ha       902 RX8       0.149000
     31 H61         51.4700    14.8390    19.6000 h1       902 RX8       0.086200
     32 H62         52.9110    15.3290    20.5240 h1       902 RX8       0.086200
     33 H71         51.5820    17.9400    21.5200 h1       902 RX8       0.036700
     34 H72         50.0500    17.4510    20.7580 h1       902 RX8       0.036700
     35 H81         51.9410    19.5620    19.7300 hc       902 RX8       0.044700
     36 H82         50.4180    19.8440    20.6060 hc       902 RX8       0.044700
     37 H83         50.3920    19.0840    18.9970 hc       902 RX8       0.044700
     38 H91         52.9010    17.0540    22.5030 h1       902 RX8       0.088700
     39 H92         52.6420    16.7140    24.2310 h1       902 RX8       0.088700
     40 H111        56.1050    15.5880    22.8440 hc       902 RX8       0.050700
     41 H112        55.3450    17.0540    23.5080 hc       902 RX8       0.050700
     42 H113        55.0470    16.5860    21.8170 hc       902 RX8       0.050700
     43 H121        55.1840    14.2510    24.6370 hc       902 RX8       0.050700
     44 H122        53.4350    14.2580    24.9660 hc       902 RX8       0.050700
     45 H123        54.4160    15.6950    25.3400 hc       902 RX8       0.050700
@<TRIPOS>BOND
     1     1     2 1   
     2     1    25 1   
     3     1    26 1   
     4     2     5 ar  
     5     2    11 ar  
     6     3    13 1   
     7     3    14 1   
     8     4     5 ar  
     9     4     7 ar  
    10     4    23 ar  
    11     6    17 1   
    12     6    24 1   
    13     7     9 ar  
    14     7    20 ar  
    15     8    11 1   
    16     8    12 2   
    17     9    10 1   
    18     9    11 ar  
    19    10    12 1   
    20    10    16 1   
    21    12    13 1   
    22    13    31 1   
    23    13    32 1   
    24    14    15 1   
    25    14    33 1   
    26    14    34 1   
    27    15    35 1   
    28    15    36 1   
    29    15    37 1   
    30    16    17 1   
    31    16    38 1   
    32    16    39 1   
    33    17    18 1   
    34    17    19 1   
    35    18    40 1   
    36    18    41 1   
    37    18    42 1   
    38    19    43 1   
    39    19    44 1   
    40    19    45 1   
    41    20    21 ar  
    42    20    27 1   
    43    21    22 ar  
    44    21    28 1   
    45    22    23 ar  
    46    22    29 1   
    47    23    30 1   
@<TRIPOS>SUBSTRUCTURE
     1 RX8         1 TEMP              0 ****  ****    0 ROOT
