@<TRIPOS>MOLECULE
JRI
   51    54     1     0     0
SMALL
bcc


@<TRIPOS>ATOM
      1 C1          52.3860   -24.8700    30.4860 c3       901 JRI       0.063800
      2 C10         58.2780   -29.9510    30.9500 c3       901 JRI      -0.099100
      3 C11         59.2000   -29.3990    35.6500 ca       901 JRI       0.143600
      4 C12         58.4610   -29.7800    36.7670 ca       901 JRI      -0.175000
      5 C13         59.0640   -30.3850    37.8570 ca       901 JRI      -0.069000
      6 C14         60.4170   -30.6510    37.8570 ca       901 JRI      -0.047300
      7 C15         61.2180   -30.3370    36.7250 ca       901 JRI       0.428600
      8 C16         60.5980   -29.7240    35.5870 ca       901 JRI      -0.145300
      9 C17         61.4230   -29.4040    34.4790 ca       901 JRI      -0.076000
     10 C18         63.2740   -30.3230    35.6910 ca       901 JRI       0.430200
     11 C19         62.7530   -29.6960    34.5370 ca       901 JRI      -0.247300
     12 C2          54.6480   -24.3870    30.8470 c3       901 JRI       0.075800
     13 C20         61.0110   -31.2750    38.9980 cg       901 JRI       0.236800
     14 C3          54.2260   -25.3430    31.9640 c3       901 JRI       0.076700
     15 C4          52.8780   -25.9020    31.4810 c3       901 JRI       0.143600
     16 C5          57.2900   -27.1900    33.2640 c3       901 JRI       0.085100
     17 C6          57.5320   -27.8370    34.6250 c3       901 JRI       0.158800
     18 C7          58.3000   -29.8070    33.4400 c3       901 JRI       0.142800
     19 C8          58.3660   -29.0410    32.1470 c3       901 JRI       0.146100
     20 C9          56.1300   -26.2310    33.2510 c        901 JRI       0.669100
     21 F1          53.0110   -27.1670    30.8960 f        901 JRI      -0.202300
     22 N1          53.3650   -23.7670    30.4930 n4       901 JRI      -0.761000
     23 N2          55.2180   -26.3640    32.2790 n        901 JRI      -0.563900
     24 N3          58.5610   -28.8840    34.5470 nh       901 JRI      -0.637000
     25 N4          62.5600   -30.6450    36.7520 nb       901 JRI      -0.647000
     26 N5          61.4300   -31.7660    39.9220 n1       901 JRI      -0.335800
     27 O1          57.2430   -28.1340    32.1780 os       901 JRI      -0.443600
     28 O2          56.0940   -25.3240    34.0900 o        901 JRI      -0.578100
     29 H1          51.4040   -24.5010    30.7830 hx       901 JRI       0.127700
     30 H2          52.3230   -25.3090    29.4900 hx       901 JRI       0.127700
     31 H3          59.1330   -30.6270    30.9440 hc       901 JRI       0.056033
     32 H4          58.2810   -29.3540    30.0380 hc       901 JRI       0.056033
     33 H5          57.3570   -30.5310    31.0010 hc       901 JRI       0.056033
     34 H6          57.3960   -29.6000    36.7840 ha       901 JRI       0.140000
     35 H7          58.4680   -30.6520    38.7170 ha       901 JRI       0.154000
     36 H8          61.0030   -28.9350    33.6010 ha       901 JRI       0.145000
     37 H9          64.3290   -30.5540    35.7050 h4       901 JRI       0.037100
     38 H10         63.4020   -29.4510    33.7090 ha       901 JRI       0.152000
     39 H11         55.0760   -24.9260    30.0020 hx       901 JRI       0.122200
     40 H12         55.3630   -23.6460    31.2060 hx       901 JRI       0.122200
     41 H13         54.1340   -24.8340    32.9240 h1       901 JRI       0.127700
     42 H14         52.1780   -26.0540    32.3030 h1       901 JRI       0.125700
     43 H15         58.1770   -26.5810    33.0870 h1       901 JRI       0.089700
     44 H16         56.6010   -28.2810    34.9770 h1       901 JRI       0.067200
     45 H17         57.8580   -27.0710    35.3290 h1       901 JRI       0.067200
     46 H18         59.0510   -30.5970    33.4370 h1       901 JRI       0.063200
     47 H19         57.3100   -30.2470    33.5550 h1       901 JRI       0.063200
     48 H20         59.3170   -28.5170    32.0540 h1       901 JRI       0.057700
     49 H21         53.1080   -23.0710    31.1780 hn       901 JRI       0.460300
     50 H23         53.4080   -23.2970    29.6000 hn       901 JRI       0.460300
     51 H22         55.2170   -27.2160    31.7360 hn       901 JRI       0.349500
@<TRIPOS>BOND
     1     1    15 1   
     2     1    22 1   
     3     1    29 1   
     4     1    30 1   
     5     2    19 1   
     6     2    31 1   
     7     2    32 1   
     8     2    33 1   
     9     3     4 ar  
    10     3     8 ar  
    11     3    24 1   
    12     4     5 ar  
    13     4    34 1   
    14     5     6 ar  
    15     5    35 1   
    16     6     7 ar  
    17     6    13 1   
    18     7     8 ar  
    19     7    25 ar  
    20     8     9 ar  
    21     9    11 ar  
    22     9    36 1   
    23    10    11 ar  
    24    10    25 ar  
    25    10    37 1   
    26    11    38 1   
    27    12    14 1   
    28    12    22 1   
    29    12    39 1   
    30    12    40 1   
    31    13    26 3   
    32    14    15 1   
    33    14    23 1   
    34    14    41 1   
    35    15    21 1   
    36    15    42 1   
    37    16    17 1   
    38    16    20 1   
    39    16    27 1   
    40    16    43 1   
    41    17    24 1   
    42    17    44 1   
    43    17    45 1   
    44    18    19 1   
    45    18    24 1   
    46    18    46 1   
    47    18    47 1   
    48    19    27 1   
    49    19    48 1   
    50    20    23 1   
    51    20    28 2   
    52    22    49 1   
    53    22    50 1   
    54    23    51 1   
@<TRIPOS>SUBSTRUCTURE
     1 JRI         1 TEMP              0 ****  ****    0 ROOT
