@<TRIPOS>MOLECULE
CU8
   31    33     1     0     0
SMALL
bcc


@<TRIPOS>ATOM
      1 N           60.6290   -30.1660    35.3590 na       916 CU8       0.045200
      2 C           61.4580   -30.7040    36.1670 cc       916 CU8       0.396500
      3 O           60.5340   -31.8330    39.4220 o        916 CU8      -0.634100
      4 C1          61.0550   -29.8270    34.1600 cc       916 CU8       0.121700
      5 N1          62.7330   -30.9750    35.9050 nc       916 CU8      -0.659000
      6 C2          62.3680   -30.0610    33.8350 cd       916 CU8      -0.312300
      7 N2          59.3710   -30.0010    35.8550 nc       916 CU8      -0.559100
      8 C3          63.2280   -30.6510    34.7340 cd       916 CU8       0.449200
      9 N3          62.5090   -31.6710    38.6290 n        916 CU8      -0.668000
     10 C4          59.3710   -30.4710    37.0880 cd       916 CU8       0.439500
     11 C5          60.6320   -30.9210    37.3450 cd       916 CU8      -0.334800
     12 C6          60.1520   -29.1810    33.1930 ca       916 CU8      -0.072000
     13 C7          60.0410   -29.5710    31.8820 ca       916 CU8      -0.102000
     14 C8          59.1760   -28.9020    31.0470 ca       916 CU8      -0.081300
     15 C9          58.4350   -27.8570    31.5000 ca       916 CU8      -0.107000
     16 C10         59.4080   -28.1130    33.6180 ca       916 CU8      -0.079000
     17 C11         58.5400   -27.4590    32.7910 ca       916 CU8      -0.131000
     18 C12         61.2320   -31.5250    38.5330 c        916 CU8       0.713300
     19 C13         59.0290   -29.3010    29.6240 c3       916 CU8      -0.055800
     20 H2          62.7320   -29.7780    32.8590 ha       916 CU8       0.168000
     21 H3          64.2620   -30.8380    34.4870 h4       916 CU8       0.036100
     22 H4          58.5310   -30.4950    37.7660 h4       916 CU8       0.078800
     23 H7          60.6280   -30.3970    31.5080 ha       916 CU8       0.138000
     24 H9          57.7610   -27.3430    30.8300 ha       916 CU8       0.137000
     25 H10         59.5110   -27.7770    34.6390 ha       916 CU8       0.152000
     26 H11         57.9460   -26.6360    33.1610 ha       916 CU8       0.141000
     27 H31         62.9120   -32.0520    39.4730 hn       916 CU8       0.318500
     28 H32         63.1070   -31.4040    37.8600 hn       916 CU8       0.318500
     29 H131        58.3010   -28.6510    29.1380 hc       916 CU8       0.047700
     30 H132        58.6870   -30.3350    29.5700 hc       916 CU8       0.047700
     31 H133        59.9910   -29.2100    29.1200 hc       916 CU8       0.047700
@<TRIPOS>BOND
     1     1     2 1   
     2     1     4 1   
     3     1     7 1   
     4     2     5 1   
     5     2    11 2   
     6     3    18 2   
     7     4     6 2   
     8     4    12 1   
     9     5     8 2   
    10     6     8 1   
    11     6    20 1   
    12     7    10 2   
    13     8    21 1   
    14     9    18 1   
    15     9    27 1   
    16     9    28 1   
    17    10    11 1   
    18    10    22 1   
    19    11    18 1   
    20    12    13 ar  
    21    12    16 ar  
    22    13    14 ar  
    23    13    23 1   
    24    14    15 ar  
    25    14    19 1   
    26    15    17 ar  
    27    15    24 1   
    28    16    17 ar  
    29    16    25 1   
    30    17    26 1   
    31    19    29 1   
    32    19    30 1   
    33    19    31 1   
@<TRIPOS>SUBSTRUCTURE
     1 CU8         1 TEMP              0 ****  ****    0 ROOT
