@<TRIPOS>MOLECULE
O0W
   50    54     1     0     0
SMALL
bcc


@<TRIPOS>ATOM
      1 C2          37.4150    -4.3340    14.7760 cc      1101 O0W      -0.170100
      2 C3          37.9240    -3.8190    13.6510 ca      1101 O0W      -0.095000
      3 C11         38.3320     0.0510    11.6120 cc      1101 O0W       0.044600
      4 C13         37.9520     1.2780     9.6130 c       1101 O0W       0.735100
      5 C14         37.9530     0.0000     8.8930 cc      1101 O0W      -0.307900
      6 C15         38.1290    -1.1490     9.5350 cd      1101 O0W       0.392500
      7 C16         40.7670    -5.5160    11.5340 c3      1101 O0W      -0.052800
      8 C17         37.8100    -6.3990    16.1020 c3      1101 O0W       0.069000
      9 C18         38.1050    -5.8150    17.5000 c3      1101 O0W      -0.130900
     10 C19         38.0740    -6.9790    18.5210 c3      1101 O0W       0.109300
     11 C21         36.4530    -8.2440    17.0930 c3      1101 O0W       0.109300
     12 C22         36.4210    -7.0760    16.0770 c3      1101 O0W      -0.130900
     13 C24         38.2150     2.4870    11.6960 c3      1101 O0W       0.056300
     14 C25         37.8550    -0.3970     7.4940 cc      1101 O0W      -0.183300
     15 C26         37.9800    -1.7230     7.5560 cd      1101 O0W       0.227600
     16 N1          38.0360    -5.4670    15.0050 na      1101 O0W       0.108800
     17 C4          38.9480    -4.7500    13.2160 ca      1101 O0W      -0.058000
     18 N5          38.9620    -5.6980    14.0480 nc      1101 O0W      -0.258400
     19 C6          37.7120    -2.5910    12.8800 ca      1101 O0W      -0.115000
     20 C7          38.4620    -2.3900    11.7810 ca      1101 O0W       0.010200
     21 C8          39.4770    -3.3850    11.3470 ca      1101 O0W      -0.099000
     22 C9          39.7360    -4.5210    12.0050 ca      1101 O0W      -0.037300
     23 C10         38.3000    -1.1440    11.0020 cd      1101 O0W      -0.242000
     24 N12         38.1780     1.2310    10.9490 n       1101 O0W      -0.348000
     25 N20         36.7880    -7.7130    18.4320 n4      1101 O0W      -0.766000
     26 O23         37.8070     2.3130     8.9860 o       1101 O0W      -0.608500
     27 O27         38.1610    -2.2530     8.7770 os      1101 O0W      -0.351800
     28 H2          36.6360    -3.8980    15.3840 h4      1101 O0W       0.170000
     29 H11         38.4870     0.0780    12.6800 h4      1101 O0W       0.156000
     30 H161        40.8020    -6.3580    12.2260 hc      1101 O0W       0.054033
     31 H162        41.7450    -5.0360    11.4960 hc      1101 O0W       0.054033
     32 H163        40.4990    -5.8740    10.5400 hc      1101 O0W       0.054033
     33 H17         38.5510    -7.1770    15.9190 h1      1101 O0W       0.103700
     34 H181        37.3480    -5.0750    17.7590 hc      1101 O0W       0.101700
     35 H182        39.0880    -5.3450    17.5050 hc      1101 O0W       0.101700
     36 H191        38.1890    -6.5770    19.5280 hx      1101 O0W       0.111700
     37 H192        38.8940    -7.6650    18.3080 hx      1101 O0W       0.111700
     38 H211        37.2070    -8.9710    16.7900 hx      1101 O0W       0.111700
     39 H212        35.4760    -8.7260    17.1260 hx      1101 O0W       0.111700
     40 H221        36.2110    -7.4580    15.0780 hc      1101 O0W       0.101700
     41 H222        35.6520    -6.3580    16.3600 hc      1101 O0W       0.101700
     42 H241        38.4050     2.2780    12.7490 h1      1101 O0W       0.064367
     43 H242        37.2580     2.9990    11.5940 h1      1101 O0W       0.064367
     44 H243        39.0100     3.1210    11.3020 h1      1101 O0W       0.064367
     45 H25         37.7160     0.2270     6.6240 ha      1101 O0W       0.185000
     46 H26         37.9380    -2.3390     6.6700 h4      1101 O0W       0.063100
     47 H6          36.9730    -1.8660    13.1860 ha      1101 O0W       0.136000
     48 H8          40.0390    -3.1790    10.4480 ha      1101 O0W       0.159000
     49 H201        36.0500    -7.0830    18.7110 hn      1101 O0W       0.455300
     50 H202        36.8280    -8.4910    19.0750 hn      1101 O0W       0.455300
@<TRIPOS>BOND
     1     1     2 2   
     2     1    16 1   
     3     1    28 1   
     4     2    17 ar  
     5     2    19 ar  
     6     3    23 2   
     7     3    24 1   
     8     3    29 1   
     9     4     5 1   
    10     4    24 1   
    11     4    26 2   
    12     5     6 2   
    13     5    14 1   
    14     6    23 1   
    15     6    27 1   
    16     7    22 1   
    17     7    30 1   
    18     7    31 1   
    19     7    32 1   
    20     8     9 1   
    21     8    12 1   
    22     8    16 1   
    23     8    33 1   
    24     9    10 1   
    25     9    34 1   
    26     9    35 1   
    27    10    25 1   
    28    10    36 1   
    29    10    37 1   
    30    11    12 1   
    31    11    25 1   
    32    11    38 1   
    33    11    39 1   
    34    12    40 1   
    35    12    41 1   
    36    13    24 1   
    37    13    42 1   
    38    13    43 1   
    39    13    44 1   
    40    14    15 2   
    41    14    45 1   
    42    15    27 1   
    43    15    46 1   
    44    16    18 1   
    45    17    18 2   
    46    17    22 ar  
    47    19    20 ar  
    48    19    47 1   
    49    20    21 ar  
    50    20    23 1   
    51    21    22 ar  
    52    21    48 1   
    53    25    49 1   
    54    25    50 1   
@<TRIPOS>SUBSTRUCTURE
     1 O0W         1 TEMP              0 ****  ****    0 ROOT
