@<TRIPOS>MOLECULE
DY3
   41    42     1     0     0
SMALL
bcc


@<TRIPOS>ATOM
      1 N          -65.2680     0.1150   -26.9230 nc       901 DY3      -0.341000
      2 C          -64.2450    -0.1600   -27.7540 cd       901 DY3       0.371800
      3 O          -61.5370     3.5070   -27.9000 oh       901 DY3      -0.603800
      4 C1         -66.0700    -0.9290   -28.6020 cd       901 DY3       0.424800
      5 N1         -64.7810    -0.8180   -28.7570 na       901 DY3      -0.242800
      6 C2         -62.9840    -2.1510   -29.5560 ca       901 DY3      -0.134500
      7 N2         -66.4570    -0.3950   -27.4510 nc       901 DY3      -0.362000
      8 C3         -62.0910    -2.5470   -30.5470 ca       901 DY3      -0.058800
      9 C4         -63.9970    -1.1930   -29.7540 ca       901 DY3      -0.000200
     10 C5         -62.1620    -1.9450   -31.8690 ca       901 DY3      -0.071300
     11 C6         -64.0640    -0.5850   -31.0080 ca       901 DY3      -0.134500
     12 C7         -63.2090    -0.9320   -32.0510 ca       901 DY3      -0.058800
     13 C8         -66.7140    -1.7320   -31.2420 c3       901 DY3      -0.062000
     14 C9         -62.7910     0.1960   -27.5390 c3       901 DY3      -0.097700
     15 C10        -62.7160     1.5790   -26.9200 c3       901 DY3      -0.078400
     16 C11        -62.6930     2.6500   -28.0070 c3       901 DY3       0.130400
     17 C12        -61.2410    -2.3370   -32.9880 c3       901 DY3      -0.057800
     18 C13        -63.3670    -0.2660   -33.3820 c3       901 DY3      -0.056800
     19 C14        -61.0570    -3.5880   -30.2850 c3       901 DY3      -0.056800
     20 S          -67.2540    -1.6800   -29.6040 ss       901 DY3      -0.202400
     21 H          -61.5870     4.1520   -28.6090 ho       901 DY3       0.400000
     22 H2         -62.8950    -2.6040   -28.5800 ha       901 DY3       0.150000
     23 H6         -64.8050     0.1820   -31.1760 ha       901 DY3       0.150000
     24 H81        -67.4740    -2.2090   -31.8600 h1       901 DY3       0.079367
     25 H82        -65.7870    -2.3020   -31.3010 h1       901 DY3       0.079367
     26 H83        -66.5400    -0.7170   -31.6000 h1       901 DY3       0.079367
     27 H91        -62.2670     0.1930   -28.4950 hc       901 DY3       0.061700
     28 H92        -62.3300    -0.5310   -26.8700 hc       901 DY3       0.061700
     29 H101       -63.5860     1.7340   -26.2820 hc       901 DY3       0.068700
     30 H102       -61.8080     1.6560   -26.3220 hc       901 DY3       0.068700
     31 H111       -62.6800     2.1620   -28.9810 h1       901 DY3       0.028200
     32 H112       -63.5920     3.2600   -27.9190 h1       901 DY3       0.028200
     33 H121       -61.4820    -1.7550   -33.8770 hc       901 DY3       0.048367
     34 H122       -61.3630    -3.3980   -33.2040 hc       901 DY3       0.048367
     35 H123       -60.2090    -2.1430   -32.6950 hc       901 DY3       0.048367
     36 H131       -62.6200    -0.6550   -34.0740 hc       901 DY3       0.048700
     37 H132       -63.2310     0.8100   -33.2690 hc       901 DY3       0.048700
     38 H133       -64.3640    -0.4670   -33.7730 hc       901 DY3       0.048700
     39 H141       -61.1410    -3.9320   -29.2540 hc       901 DY3       0.048700
     40 H142       -60.0660    -3.1650   -30.4480 hc       901 DY3       0.048700
     41 H143       -61.2080    -4.4290   -30.9620 hc       901 DY3       0.048700
@<TRIPOS>BOND
     1     1     2 2   
     2     1     7 1   
     3     2     5 1   
     4     2    14 1   
     5     3    16 1   
     6     3    21 1   
     7     4     5 1   
     8     4     7 2   
     9     4    20 1   
    10     5     9 1   
    11     6     8 ar  
    12     6     9 ar  
    13     6    22 1   
    14     8    10 ar  
    15     8    19 1   
    16     9    11 ar  
    17    10    12 ar  
    18    10    17 1   
    19    11    12 ar  
    20    11    23 1   
    21    12    18 1   
    22    13    20 1   
    23    13    24 1   
    24    13    25 1   
    25    13    26 1   
    26    14    15 1   
    27    14    27 1   
    28    14    28 1   
    29    15    16 1   
    30    15    29 1   
    31    15    30 1   
    32    16    31 1   
    33    16    32 1   
    34    17    33 1   
    35    17    34 1   
    36    17    35 1   
    37    18    36 1   
    38    18    37 1   
    39    18    38 1   
    40    19    39 1   
    41    19    40 1   
    42    19    41 1   
@<TRIPOS>SUBSTRUCTURE
     1 DY3         1 TEMP              0 ****  ****    0 ROOT
