@<TRIPOS>MOLECULE
denovo_1.A
42 43 1 0 0 
SMALL
NO_CHARGES


@<TRIPOS>ATOM
  1 C1      62.5790   -31.1950    35.4970 C.ar  1 GD0   0.0000 
  2 N1      60.0930   -31.3560    38.2510 N.2   1 GD0   0.0000 
  3 O1      57.5190   -32.2910    35.9670 O.3   1 GD0   0.0000 
  4 C2      64.5920   -30.1680    34.7260 C.ar  1 GD0   0.0000 
  5 C3      62.6170   -32.0860    34.4470 C.ar  1 GD0   0.0000 
  6 C4      64.6470   -31.0760    33.6800 C.ar  1 GD0   0.0000 
  7 C5      63.6600   -32.0320    33.5360 C.ar  1 GD0   0.0000 
  8 C6      61.4490   -31.2600    36.4240 C.2   1 GD0   0.0000 
  9 C7      61.3880   -31.3390    37.9100 C.2   1 GD0   0.0000 
 10 C8      59.3930   -31.2950    37.0710 C.2   1 GD0   0.0000 
 11 C9      59.6630   -31.2020    34.6210 C.3   1 GD0   0.0000 
 12 C10     59.3560   -29.8870    33.9280 C.3   1 GD0   0.0000 
 13 C11     60.6320   -29.0970    33.7130 C.3   1 GD0   0.0000 
 14 C12     58.7450   -30.1600    32.5690 C.3   1 GD0   0.0000 
 15 C13     57.9090   -31.2930    36.9070 C.3   1 GD0   0.0000 
 16 C14     56.1250   -32.5340    36.1790 C.3   1 GD0   0.0000 
 17 I       63.0080   -31.4400    39.3740 I     1 GD0   0.0000 
 18 C15     55.7380   -33.7610    35.4240 C.3   1 GD0   0.0000 
 19 N       60.1770   -31.2200    36.0040 N.pl3 1 GD0   0.0000 
 20 O       58.4100   -29.1410    34.6920 O.3   1 GD0   0.0000 
 21 C       63.5480   -30.2230    35.6360 C.ar  1 GD0   0.0000 
 22 H2      65.3620   -29.4180    34.8320 H     1 GD0   0.0000 
 23 H3      61.8370   -32.8240    34.3340 H     1 GD0   0.0000 
 24 H4      65.4640   -31.0360    32.9750 H     1 GD0   0.0000 
 25 H5      63.7010   -32.7340    32.7170 H     1 GD0   0.0000 
 26 H91     60.4040   -31.7130    34.0060 H     1 GD0   0.0000 
 27 H92     58.7360   -31.7760    34.6250 H     1 GD0   0.0000 
 28 H111    61.3330   -29.6920    33.1280 H     1 GD0   0.0000 
 29 H112    61.0770   -28.8560    34.6780 H     1 GD0   0.0000 
 30 H113    60.4030   -28.1750    33.1780 H     1 GD0   0.0000 
 31 H121    59.4480   -30.7300    31.9620 H     1 GD0   0.0000 
 32 H122    58.5220   -29.2150    32.0740 H     1 GD0   0.0000 
 33 H123    57.8250   -30.7310    32.6920 H     1 GD0   0.0000 
 34 H131    57.5870   -30.3150    36.5490 H     1 GD0   0.0000 
 35 H132    57.4400   -31.5000    37.8690 H     1 GD0   0.0000 
 36 H141    55.9350   -32.6810    37.2420 H     1 GD0   0.0000 
 37 H142    55.5450   -31.6840    35.8210 H     1 GD0   0.0000 
 38 H151    56.3200   -34.6090    35.7850 H     1 GD0   0.0000 
 39 H152    55.9340   -33.6110    34.3620 H     1 GD0   0.0000 
 40 H153    54.6770   -33.9590    35.5730 H     1 GD0   0.0000 
 41 H       57.6130   -29.6710    34.7640 H     1 GD0   0.0000 
 42 H       63.4940   -29.5110    36.4470 H     1 GD0   0.0000 
@<TRIPOS>BOND
  1   1   5  ar  
  2   1   8  1   
  3   1  21  ar  
  4   2   9  1   
  5   2  10  2   
  6   3  15  1   
  7   3  16  1   
  8   4   6  ar  
  9   4  21  ar  
 10   4  22  1   
 11   5   7  ar  
 12   5  23  1   
 13   6   7  ar  
 14   6  24  1   
 15   7  25  1   
 16   8   9  2   
 17   8  19  1   
 18   9  17  1   
 19  10  15  1   
 20  10  19  1   
 21  11  12  1   
 22  11  19  1   
 23  11  26  1   
 24  11  27  1   
 25  12  13  1   
 26  12  14  1   
 27  12  20  1   
 28  13  28  1   
 29  13  29  1   
 30  13  30  1   
 31  14  31  1   
 32  14  32  1   
 33  14  33  1   
 34  15  34  1   
 35  15  35  1   
 36  16  18  1   
 37  16  36  1   
 38  16  37  1   
 39  18  38  1   
 40  18  39  1   
 41  18  40  1   
 42  20  41  1   
 43  21  42  1   
@<TRIPOS>SUBSTRUCTURE
  1 GD0  19 GROUP 4 A **** 0

# MOE 2022.02 (io_trps.svl 2020.11)
