@<TRIPOS>MOLECULE
default_name
   51    54     1     0     1 
SMALL
USER_CHARGES
@<TRIPOS>ATOM
  1 C11    59.200000  -29.399000   35.650000 ca    1 MOL     0.1981 ****
  2 N3     58.561000  -28.884000   34.547000 nh    1 MOL    -0.2462 ****
  3 C6     57.532000  -27.837000   34.625000 c3    1 MOL    -0.1020 ****
  4 C5     57.290000  -27.190000   33.264000 c3    1 MOL    -0.0252 ****
  5 C9     56.130000  -26.231000   33.251000 c     1 MOL     0.7897 ****
  6 N2     55.218000  -26.364000   32.279000 n     1 MOL    -0.7004 ****
  7 C3     54.226000  -25.343000   31.964000 c3    1 MOL     0.3141 ****
  8 C2     54.648000  -24.387000   30.847000 c3    1 MOL    -0.1588 ****
  9 N1     53.365000  -23.767000   30.493000 n4    1 MOL    -0.2869 ****
 10 C1     52.386000  -24.870000   30.486000 c3    1 MOL    -0.1467 ****
 11 C4     52.878000  -25.902000   31.481000 c3    1 MOL     0.1706 ****
 12 F1     53.011000  -27.167000   30.896000 f     1 MOL    -0.2106 ****
 13 H14    52.178000  -26.054000   32.303000 h1    1 MOL     0.1133 ****
 14 H1     51.404000  -24.501000   30.783000 hx    1 MOL     0.1584 ****
 15 H2     52.323000  -25.309000   29.490000 hx    1 MOL     0.1584 ****
 16 H21    53.108000  -23.071000   31.178000 hn    1 MOL     0.3468 ****
 17 H23    53.408000  -23.297000   29.600000 hn    1 MOL     0.3468 ****
 18 H11    55.076000  -24.926000   30.002000 hx    1 MOL     0.1621 ****
 19 H12    55.363000  -23.646000   31.206000 hx    1 MOL     0.1621 ****
 20 H13    54.134000  -24.834000   32.924000 h1    1 MOL     0.0500 ****
 21 H22    55.217000  -27.216000   31.736000 hn    1 MOL     0.3486 ****
 22 O2     56.094000  -25.324000   34.090000 o     1 MOL    -0.6205 ****
 23 O1     57.243000  -28.134000   32.178000 os    1 MOL    -0.4154 ****
 24 C8     58.366000  -29.041000   32.147000 c3    1 MOL     0.3870 ****
 25 C10    58.278000  -29.951000   30.950000 c3    1 MOL    -0.5122 ****
 26 H3     59.133000  -30.627000   30.944000 hc    1 MOL     0.1437 ****
 27 H4     58.281000  -29.354000   30.038000 hc    1 MOL     0.1437 ****
 28 H5     57.357000  -30.531000   31.001000 hc    1 MOL     0.1437 ****
 29 C7     58.300000  -29.807000   33.440000 c3    1 MOL    -0.0942 ****
 30 H18    59.051000  -30.597000   33.437000 h1    1 MOL     0.0858 ****
 31 H19    57.310000  -30.247000   33.555000 h1    1 MOL     0.0858 ****
 32 H20    59.317000  -28.517000   32.054000 h1    1 MOL     0.0338 ****
 33 H15    58.177000  -26.581000   33.087000 h1    1 MOL     0.0975 ****
 34 H16    56.601000  -28.281000   34.977000 h1    1 MOL     0.1064 ****
 35 H17    57.858000  -27.071000   35.329000 h1    1 MOL     0.1064 ****
 36 C12    58.461000  -29.780000   36.767000 ca    1 MOL    -0.2608 ****
 37 H6     57.396000  -29.600000   36.784000 ha    1 MOL     0.1638 ****
 38 C13    59.064000  -30.385000   37.857000 ca    1 MOL    -0.0800 ****
 39 H7     58.468000  -30.652000   38.717000 ha    1 MOL     0.1832 ****
 40 C14    60.417000  -30.651000   37.857000 ca    1 MOL    -0.2779 ****
 41 C20    61.011000  -31.275000   38.998000 cg    1 MOL     0.4420 ****
 42 N5     61.430000  -31.766000   39.922000 n1    1 MOL    -0.4805 ****
 43 C15    61.218000  -30.337000   36.725000 ca    1 MOL     0.6622 ****
 44 N4     62.560000  -30.645000   36.752000 nb    1 MOL    -0.6470 ****
 45 C18    63.274000  -30.323000   35.691000 ca    1 MOL     0.3911 ****
 46 H9     64.329000  -30.554000   35.705000 h4    1 MOL     0.0789 ****
 47 C16    60.598000  -29.724000   35.587000 ca    1 MOL    -0.2579 ****
 48 C17    61.423000  -29.404000   34.479000 ca    1 MOL     0.0848 ****
 49 H8     61.003000  -28.935000   33.601000 ha    1 MOL     0.0949 ****
 50 C19    62.753000  -29.696000   34.537000 ca    1 MOL    -0.4206 ****
 51 H10    63.402000  -29.451000   33.709000 ha    1 MOL     0.1899 ****
@<TRIPOS>BOND
    1    50    51 1
    2    48    49 1
    3    48    50 1
    4    47    48 1
    5    45    46 1
    6    45    50 1
    7    44    45 1
    8    43    44 1
    9    43    47 1
   10    41    42 1
   11    40    41 1
   12    40    43 1
   13    38    39 1
   14    38    40 1
   15    36    37 1
   16    36    38 1
   17    29    30 1
   18    29    31 1
   19    25    26 1
   20    25    27 1
   21    25    28 1
   22    24    25 1
   23    24    29 1
   24    24    32 1
   25    23    24 1
   26    11    12 1
   27    11    13 1
   28    10    11 1
   29    10    14 1
   30    10    15 1
   31     9    10 1
   32     9    16 1
   33     9    17 1
   34     8     9 1
   35     8    18 1
   36     8    19 1
   37     7     8 1
   38     7    20 1
   39     7    11 1
   40     6     7 1
   41     6    21 1
   42     5     6 1
   43     5    22 1
   44     4     5 1
   45     4    23 1
   46     4    33 1
   47     3     4 1
   48     3    34 1
   49     3    35 1
   50     2     3 1
   51     2    29 1
   52     1     2 1
   53     1    36 1
   54     1    47 1
@<TRIPOS>SUBSTRUCTURE
      1  MOL              1 ****               0 ****  **** 
