@<TRIPOS>MOLECULE
default_name
   42    43     1     0     1 
SMALL
USER_CHARGES
@<TRIPOS>ATOM
  1 C1     62.579000  -31.195000   35.497000 ca    1 MOL     0.0641 ****
  2 C3     62.617000  -32.086000   34.447000 ca    1 MOL    -0.0809 ****
  3 C5     63.660000  -32.032000   33.536000 ca    1 MOL    -0.0772 ****
  4 C4     64.647000  -31.076000   33.680000 ca    1 MOL    -0.0407 ****
  5 C2     64.592000  -30.168000   34.726000 ca    1 MOL    -0.0772 ****
  6 C      63.548000  -30.223000   35.636000 ca    1 MOL    -0.0809 ****
  7 H6     63.494000  -29.511000   36.447000 ha    1 MOL     0.0724 ****
  8 H2     65.362000  -29.418000   34.832000 ha    1 MOL     0.0683 ****
  9 H4     65.464000  -31.036000   32.975000 ha    1 MOL     0.0584 ****
 10 H5     63.701000  -32.734000   32.717000 ha    1 MOL     0.0683 ****
 11 H3     61.837000  -32.824000   34.334000 ha    1 MOL     0.0724 ****
 12 C6     61.449000  -31.260000   36.424000 cd    1 MOL    -0.1582 ****
 13 N      60.177000  -31.220000   36.004000 na    1 MOL    -0.0573 ****
 14 C8     59.393000  -31.295000   37.071000 cd    1 MOL     0.4556 ****
 15 N1     60.093000  -31.356000   38.251000 nc    1 MOL    -0.5906 ****
 16 C13    57.909000  -31.293000   36.907000 c3    1 MOL    -0.1340 ****
 17 O1     57.519000  -32.291000   35.967000 os    1 MOL    -0.1968 ****
 18 C14    56.125000  -32.534000   36.179000 c3    1 MOL     0.0278 ****
 19 C15    55.738000  -33.761000   35.424000 c3    1 MOL    -0.2686 ****
 20 H18    56.320000  -34.609000   35.785000 hc    1 MOL     0.0810 ****
 21 H19    55.934000  -33.611000   34.362000 hc    1 MOL     0.0810 ****
 22 H20    54.677000  -33.959000   35.573000 hc    1 MOL     0.0810 ****
 23 H16    55.935000  -32.681000   37.242000 h1    1 MOL     0.0668 ****
 24 H17    55.545000  -31.684000   35.821000 h1    1 MOL     0.0668 ****
 25 H14    57.587000  -30.315000   36.549000 h1    1 MOL     0.0597 ****
 26 H15    57.440000  -31.500000   37.869000 h1    1 MOL     0.0597 ****
 27 C9     59.663000  -31.202000   34.621000 c3    1 MOL    -0.0669 ****
 28 C10    59.356000  -29.887000   33.928000 c3    1 MOL     0.6676 ****
 29 C11    60.632000  -29.097000   33.713000 c3    1 MOL    -0.6029 ****
 30 H8     61.333000  -29.692000   33.128000 hc    1 MOL     0.1554 ****
 31 H9     61.077000  -28.856000   34.678000 hc    1 MOL     0.1554 ****
 32 H10    60.403000  -28.175000   33.178000 hc    1 MOL     0.1554 ****
 33 C12    58.745000  -30.160000   32.569000 c3    1 MOL    -0.6029 ****
 34 H11    59.448000  -30.730000   31.962000 hc    1 MOL     0.1554 ****
 35 H12    58.522000  -29.215000   32.074000 hc    1 MOL     0.1554 ****
 36 H13    57.825000  -30.731000   32.692000 hc    1 MOL     0.1554 ****
 37 O      58.410000  -29.141000   34.692000 oh    1 MOL    -0.5932 ****
 38 H      57.613000  -29.671000   34.764000 ho    1 MOL     0.3466 ****
 39 H6     60.404000  -31.713000   34.006000 h1    1 MOL     0.0324 ****
 40 H7     58.736000  -31.776000   34.625000 h1    1 MOL     0.0324 ****
 41 C7     61.388000  -31.339000   37.910000 cc    1 MOL     0.3835 ****
 42 I      63.008000  -31.440000   39.374000 i     1 MOL    -0.1498 ****
@<TRIPOS>BOND
    1    41    42 1
    2    37    38 1
    3    33    34 1
    4    33    35 1
    5    33    36 1
    6    29    30 1
    7    29    31 1
    8    29    32 1
    9    28    29 1
   10    28    33 1
   11    28    37 1
   12    27    28 1
   13    27    39 1
   14    27    40 1
   15    19    20 1
   16    19    21 1
   17    19    22 1
   18    18    19 1
   19    18    23 1
   20    18    24 1
   21    17    18 1
   22    16    17 1
   23    16    25 1
   24    16    26 1
   25    15    41 1
   26    14    15 1
   27    14    16 1
   28    13    14 1
   29    13    27 1
   30    12    13 1
   31    12    41 1
   32     6     7 1
   33     5     6 1
   34     5     8 1
   35     4     5 1
   36     4     9 1
   37     3     4 1
   38     3    10 1
   39     2     3 1
   40     2    11 1
   41     1     2 1
   42     1    12 1
   43     1     6 1
@<TRIPOS>SUBSTRUCTURE
      1  MOL              1 ****               0 ****  **** 
